@<TRIPOS>MOLECULE
MOL
    5     4     1     0     0
SMALL
bcc


@<TRIPOS>ATOM
      1 C1           0.0000     0.0000     0.0000 c3         1 MOL       0.014300
      2 CL1          0.0000     0.0000     1.7810 cl         1 MOL      -0.190400
      3 H1           1.0290     0.0000    -0.3610 h1         1 MOL       0.058700
      4 H2          -0.5150    -0.8910    -0.3610 h1         1 MOL       0.058700
      5 H3          -0.5150     0.8910    -0.3610 h1         1 MOL       0.058700
@<TRIPOS>BOND
     1     1     2 1   
     2     1     3 1   
     3     1     4 1   
     4     1     5 1   
@<TRIPOS>SUBSTRUCTURE
     1 MOL         1 TEMP              0 ****  ****    0 ROOT
